T44/data_conversion/HR/HR_Tx_01_2020/Location 1-PSSE34.raw
@!IC, SBASE,REV,XFRRAT,NXFRAT,BASFRQ
0,   100.00, 34,     0,     1, 50.00     / PSS(R)E-34.2    TUE, DEC 01 2020  14:09
CREATED BY NETVISION RAW CONVERTER FROM FILES: NDC_2020-07-0
, BEGIN BUS DATA
GENERAL, THRSHZ=0.0001, PQBRAK=0.7, BLOWUP=5.0
GAUSS, ITMX=100, ACCP=1.6, ACCQ=1.6, ACCM=1.0, TOL=0.0001
NEWTON, ITMXN=20, ACCN=1.0, TOLN=0.1, VCTOLQ=0.1, VCTOLV=0.00001, DVLIM=0.99, NDVFCT=0.99
ADJUST, ADJTHR=0.005, ACCTAP=1.0, TAPLIM=0.05, SWVBND=100.0, MXTPSS=99, MXSWIM=10
TYSL, ITMXTY=20, ACCTY=1.0, TOLTY=0.00001
RATING, 1, "RATE1 ", "RATING SET 1                    "
RATING, 2, "RATE2 ", "RATING SET 2                    "
RATING, 3, "RATE3 ", "RATING SET 3                    "
RATING, 4, "RATE4 ", "RATING SET 4                    "
RATING, 5, "RATE5 ", "RATING SET 5                    "
RATING, 6, "RATE6 ", "RATING SET 6                    "
RATING, 7, "RATE7 ", "RATING SET 7                    "
RATING, 8, "RATE8 ", "RATING SET 8                    "
RATING, 9, "RATE9 ", "RATING SET 9                    "
RATING,10, "RATE10", "RATING SET 10                   "
RATING,11, "RATE11", "RATING SET 11                   "
RATING,12, "RATE12", "RATING SET 12                   "
0 / END OF SYSTEM-WIDE DATA, BEGIN BUS DATA
@!   I,'NAME        ', BASKV, IDE,AREA,ZONE,OWNER, VM,        VA,    NVHI,   NVLO,   EVHI,   EVLO
     1,'SUBST01     ', 110.0000,1,   8,   1,   1,1.04076,  -0.8423,1.10000,0.90000,1.10000,0.90000
     2,'SUBST02     ',  35.0000,1,   8,   1,   1,1.00605,  -5.0806,1.10000,0.90000,1.10000,0.90000
     3,'SUBST3      ', 110.0000,1,   8,   1,   1,1.04213,   0.7361,1.10000,0.90000,1.10000,0.90000
     4,'SUBST4      ', 110.0000,1,   8,   1,   1,1.06237,  -1.4131,1.10000,0.90000,1.10000,0.90000
     5,'SUBST5      ', 110.0000,1,   8,   1,   1,1.04188,  -1.7533,1.10000,0.90000,1.10000,0.90000
     7,'SUBST7      ', 110.0000,2,   8,   1,   1,1.05134,   2.0112,1.10000,0.90000,1.10000,0.90000
     8,'SUBST8      ', 220.0000,1,   8,   1,   1,1.07206,   0.7242,1.10000,0.90000,1.10000,0.90000
     9,'SUBST9      ', 110.0000,1,   8,   1,   1,1.04750,   1.4513,1.10000,0.90000,1.10000,0.90000
    10,'SUBST10     ', 110.0000,2,   8,   1,   1,1.05368,  -0.8311,1.10000,0.90000,1.10000,0.90000
    11,'SUBST11     ', 400.0000,1,   8,   1,   1,1.03554,  -0.0149,1.10000,0.90000,1.10000,0.90000
    12,'SUBST12     ', 110.0000,1,   8,   1,   1,1.07663,  -1.6108,1.10000,0.90000,1.10000,0.90000
    13,'SUBST13     ', 400.0000,3,   8,   1,   1,1.04220,   0.0000,1.10000,0.90000,1.10000,0.90000
    14,'SUBST14     ', 220.0000,1,   8,   1,   1,1.08041,   0.9418,1.10000,0.90000,1.10000,0.90000
    15,'SUBST15     ', 110.0000,1,   8,   1,   1,1.06321,  -1.0922,1.10000,0.90000,1.10000,0.90000
    16,'SUBST16     ', 110.0000,1,   8,   1,   1,1.04322,   0.8247,1.10000,0.90000,1.10000,0.90000
    17,'SUBST17     ', 110.0000,1,   8,   1,   1,1.04337,   0.8033,1.10000,0.90000,1.10000,0.90000
    18,'SUBST18     ', 110.0000,1,   8,   1,   1,1.06304,  -1.2748,1.10000,0.90000,1.10000,0.90000
    19,'SUBST19     ', 110.0000,1,   8,   1,   1,1.03751,  -1.4039,1.10000,0.90000,1.10000,0.90000
    20,'SUBST20     ',  35.0000,1,   8,   1,   1,1.00817,  -2.9058,1.10000,0.90000,1.10000,0.90000
    21,'SUBST21     ',  35.0000,1,   8,   1,   1,1.00196,  -4.8485,1.10000,0.90000,1.10000,0.90000
    26,'SUBST26     ', 110.0000,1,   8,   1,   1,1.05832,  -1.5895,1.10000,0.90000,1.10000,0.90000
    29,'SUBST29     ', 110.0000,1,   8,   1,   1,1.04183,   0.0561,1.10000,0.90000,1.10000,0.90000
    30,'SUBST30     ',  35.0000,1,   8,   1,   1,1.00543,  -4.8320,1.10000,0.90000,1.10000,0.90000
    34,'SUBST34     ', 110.0000,2,   8,   1,   1,1.04461,   0.9521,1.10000,0.90000,1.10000,0.90000
    35,'SUBST35     ', 110.0000,1,   8,   1,   1,1.04343,   0.5710,1.10000,0.90000,1.10000,0.90000
    36,'SUBST36     ', 110.0000,2,   8,   1,   1,1.04442,   0.5048,1.10000,0.90000,1.10000,0.90000
    42,'SUBST42     ', 110.0000,1,   8,   1,   1,1.05271,  -1.9202,1.10000,0.90000,1.10000,0.90000
    55,'SUBST55     ', 110.0000,1,   8,   1,   1,1.04802,  -1.4136,1.10000,0.90000,1.10000,0.90000
    68,'SUBST68     ', 110.0000,1,   8,   1,   1,1.04125,  -1.7963,1.10000,0.90000,1.10000,0.90000
    72,'SUBST72     ', 110.0000,1,   8,   1,   1,1.07148,  -0.9664,1.10000,0.90000,1.10000,0.90000
   103,'SUBST103    ', 110.0000,1,   8,   1,   1,1.06251,  -1.4519,1.10000,0.90000,1.10000,0.90000
0 / END OF BUS DATA, BEGIN LOAD DATA
@!   I,'ID',STAT,AREA,ZONE,      PL,        QL,        IP,        IQ,        YP,        YQ, OWNER,SCALE,INTRPT,  DGENP,     DGENQ, DGENF
     1,'3 ',   1,   8,   1,     1.843,     1.586,     0.000,     0.000,     0.000,     0.000,   1,    1,  0,     0.000,     0.000,   0
     1,'4 ',   1,   8,   1,     1.856,     1.567,     0.000,     0.000,     0.000,     0.000,   1,    1,  0,     0.000,     0.000,   0
     2,'1 ',   1,   8,   1,    25.397,    -0.400,     0.000,     0.000,     0.000,     0.000,   1,    1,  0,     0.000,     0.000,   0
     3,'1 ',   1,   8,   1,    21.802,     0.002,     0.000,     0.000,     0.000,     0.000,   1,    1,  0,     0.000,     0.000,   0
     3,'2 ',   1,   8,   1,    16.820,     2.377,     0.000,     0.000,     0.000,     0.000,   1,    1,  0,     0.000,     0.000,   0
     4,'2 ',   1,   8,   1,    29.765,     7.374,     0.000,     0.000,     0.000,     0.000,   1,    1,  0,     0.000,     0.000,   0
     4,'99',   1,   8,   1,    16.859,     0.401,     0.000,     0.000,     0.000,     0.000,   1,    1,  0,     0.000,     0.000,   0
     5,'1 ',   1,   8,   1,    18.816,     2.313,     0.000,     0.000,     0.000,     0.000,   1,    1,  0,     0.000,     0.000,   0
     5,'2 ',   1,   8,   1,    -9.000,    -0.460,     0.000,     0.000,     0.000,     0.000,   1,    1,  0,     0.000,     0.000,   0
     8,'99',   1,   8,   1,   -97.315,     0.000,     0.000,     0.000,     0.000,     0.000,   1,    1,  0,     0.000,     0.000,   0
     9,'1 ',   1,   8,   1,     3.949,    -0.394,     0.000,     0.000,     0.000,     0.000,   1,    1,  0,     0.000,     0.000,   0
     9,'2 ',   1,   8,   1,    10.391,     5.244,     0.000,     0.000,     0.000,     0.000,   1,    1,  0,     0.000,     0.000,   0
     9,'99',   1,   8,   1,   -33.236,    23.904,     0.000,     0.000,     0.000,     0.000,   1,    1,  0,     0.000,     0.000,   0
    10,'1 ',   1,   8,   1,     5.220,     2.201,     0.000,     0.000,     0.000,     0.000,   1,    1,  0,     0.000,     0.000,   0
    10,'99',   1,   8,   1,    27.475,     2.118,     0.000,     0.000,     0.000,     0.000,   1,    1,  0,     0.000,     0.000,   0
    11,'99',   1,   8,   1,  -159.324,   145.316,     0.000,     0.000,     0.000,     0.000,   1,    1,  0,     0.000,     0.000,   0
    12,'99',   1,   8,   1,   188.523,    -0.146,     0.000,     0.000,     0.000,     0.000,   1,    1,  0,     0.000,     0.000,   0
    13,'99',   1,   8,   1,   -20.579,   -11.231,     0.000,     0.000,     0.000,     0.000,   1,    1,  0,     0.000,     0.000,   0
    14,'99',   1,   8,   1,  -108.905,    33.194,     0.000,     0.000,     0.000,     0.000,   1,    1,  0,     0.000,     0.000,   0
    15,'1 ',   1,   8,   1,     4.318,    -7.359,     0.000,     0.000,     0.000,     0.000,   1,    1,  0,     0.000,     0.000,   0
    16,'1 ',   1,   8,   1,    11.997,     2.557,     0.000,     0.000,     0.000,     0.000,   1,    1,  0,     0.000,     0.000,   0
    16,'2 ',   1,   8,   1,    16.589,     1.480,     0.000,     0.000,     0.000,     0.000,   1,    1,  0,     0.000,     0.000,   0
    16,'3 ',   1,   8,   1,     4.645,    -0.130,     0.000,     0.000,     0.000,     0.000,   1,    1,  0,     0.000,     0.000,   0
    17,'1 ',   1,   8,   1,     3.041,     0.738,     0.000,     0.000,     0.000,     0.000,   1,    1,  0,     0.000,     0.000,   0
    17,'2 ',   1,   8,   1,     5.184,    -0.749,     0.000,     0.000,     0.000,     0.000,   1,    1,  0,     0.000,     0.000,   0
    18,'1 ',   1,   8,   1,    -0.016,    -1.527,     0.000,     0.000,     0.000,     0.000,   1,    1,  0,     0.000,     0.000,   0
    20,'1 ',   1,   8,   1,     4.325,    -0.516,     0.000,     0.000,     0.000,     0.000,   1,    1,  0,     0.000,     0.000,   0
    21,'2 ',   1,   8,   1,     9.660,    -0.063,     0.000,     0.000,     0.000,     0.000,   1,    1,  0,     0.000,     0.000,   0
    26,'1 ',   1,   8,   1,    15.730,     1.084,     0.000,     0.000,     0.000,     0.000,   1,    1,  0,     0.000,     0.000,   0
    26,'2 ',   1,   8,   1,    14.318,     2.747,     0.000,     0.000,     0.000,     0.000,   1,    1,  0,     0.000,     0.000,   0
    30,'1 ',   1,   8,   1,    14.775,    -0.358,     0.000,     0.000,     0.000,     0.000,   1,    1,  0,     0.000,     0.000,   0
    35,'1 ',   1,   8,   1,    15.905,     1.773,     0.000,     0.000,     0.000,     0.000,   1,    1,  0,     0.000,     0.000,   0
    36,'1 ',   1,   8,   1,    -0.806,     2.103,     0.000,     0.000,     0.000,     0.000,   1,    1,  0,     0.000,     0.000,   0
    42,'1 ',   1,   8,   1,    21.279,     1.852,     0.000,     0.000,     0.000,     0.000,   1,    1,  0,     0.000,     0.000,   0
    55,'3 ',   1,   8,   1,     7.106,     1.058,     0.000,     0.000,     0.000,     0.000,   1,    1,  0,     0.000,     0.000,   0
    68,'2 ',   1,   8,   1,     5.707,     2.486,     0.000,     0.000,     0.000,     0.000,   1,    1,  0,     0.000,     0.000,   0
    72,'1 ',   1,   8,   1,     0.220,    -0.596,     0.000,     0.000,     0.000,     0.000,   1,    1,  0,     0.000,     0.000,   0
    72,'2 ',   1,   8,   1,     0.220,    -0.596,     0.000,     0.000,     0.000,     0.000,   1,    1,  0,     0.000,     0.000,   0
    72,'99',   1,   8,   1,    11.209,     9.209,     0.000,     0.000,     0.000,     0.000,   1,    1,  0,     0.000,     0.000,   0
   103,'1 ',   1,   8,   1,    26.474,     4.640,     0.000,     0.000,     0.000,     0.000,   1,    1,  0,     0.000,     0.000,   0
   103,'2 ',   1,   8,   1,    23.995,     2.596,     0.000,     0.000,     0.000,     0.000,   1,    1,  0,     0.000,     0.000,   0
   103,'3 ',   1,   8,   1,     1.543,     0.523,     0.000,     0.000,     0.000,     0.000,   1,    1,  0,     0.000,     0.000,   0
   103,'4 ',   1,   8,   1,     1.091,     0.127,     0.000,     0.000,     0.000,     0.000,   1,    1,  0,     0.000,     0.000,   0
   103,'99',   1,   8,   1,     9.806,     4.787,     0.000,     0.000,     0.000,     0.000,   1,    1,  0,     0.000,     0.000,   0
0 / END OF LOAD DATA, BEGIN FIXED SHUNT DATA
@!   I,'ID',STATUS,  GL,        BL
     4,'99',1,     0.000,     0.998
     8,'99',1,    -1.471,    90.575
     9,'99',1,     0.000,     0.413
    11,'99',1,    28.747,    64.457
    12,'99',1,     0.125,    22.736
    13,'99',1,     0.009,    84.918
    14,'99',1,     0.001,     5.586
    72,'99',1,     0.000,     0.370
0 / END OF FIXED SHUNT DATA, BEGIN GENERATOR DATA
@!   I,'ID',      PG,        QG,        QT,        QB,     VS,    IREG,     MBASE,     ZR,         ZX,         RT,         XT,     GTAP,STAT, RMPCT,      PT,        PB,    O1,    F1,  O2,    F2,  O3,    F3,  O4,    F4,WMOD,  WPF
     7,'1 ',    44.158,     3.623,    25.000,    -4.000,1.05134,     0,    55.000, 0.00000E+0, 2.38000E-1, 0.00000E+0, 1.11400E-1,1.00000,1,  100.0,    47.500,    18.000,   1,1.0000
     7,'2 ',    45.340,     3.720,    25.000,    -4.000,1.05134,     0,    55.000, 0.00000E+0, 2.38000E-1, 0.00000E+0, 1.09000E-1,1.00000,1,  100.0,    47.500,    18.000,   1,1.0000
    10,'1 ',     0.000,     0.000,     8.000,    -2.800,1.05368,     0,    35.950, 0.00000E+0, 2.30000E-1, 0.00000E+0, 1.16000E-1,1.00000,0,  100.0,    30.550,     5.000,   1,1.0000
    10,'2 ',     0.000,     0.000,     8.000,    -2.800,1.05368,     0,    35.950, 0.00000E+0, 2.30000E-1, 0.00000E+0, 1.16000E-1,1.00000,0,  100.0,    30.550,     5.000,   1,1.0000
    10,'3 ',     0.000,     0.000,    13.000,   -12.000,1.05368,     0,    16.000, 0.00000E+0, 1.39000E-1, 0.00000E+0, 1.05000E-1,1.00000,0,  100.0,    12.800,     3.000,   1,1.0000
    10,'4 ',     0.000,    -1.349,    13.000,   -12.000,1.05368,     0,    16.000, 0.00000E+0, 1.39000E-1, 0.00000E+0, 1.05000E-1,1.00000,1,  100.0,    12.800,     3.000,   1,1.0000
    13,'1 ',     0.315,    -0.015,  9999.000, -9999.000,1.04220,     0,   100.000, 0.00000E+0, 1.00000E+0, 0.00000E+0, 0.00000E+0,1.00000,1,  100.0,  9999.000, -9999.000,   1,1.0000
    34,'1 ',    37.044,    -1.443,    21.000,   -12.600,1.04461,     0,    42.000, 0.00000E+0, 3.40000E-1, 0.00000E+0, 1.12200E-1,1.00000,1,  100.0,    40.000,    15.000,   1,1.0000
    34,'2 ',    37.202,    -1.449,    21.000,   -12.600,1.04461,     0,    42.000, 0.00000E+0, 3.40000E-1, 0.00000E+0, 1.12200E-1,1.00000,1,  100.0,    40.000,    15.000,   1,1.0000
    36,'1 ',     0.000,     0.000,    20.000,    -8.400,1.04442,     0,    42.000, 0.00000E+0, 3.30000E-1, 0.00000E+0, 1.10000E-1,1.00000,0,  100.0,    40.000,     0.010,   1,1.0000
    36,'2 ',    38.287,     0.337,    20.000,    -8.400,1.04442,     0,    42.000, 0.00000E+0, 3.30000E-1, 0.00000E+0, 1.10000E-1,1.00000,1,  100.0,    40.000,     0.010,   1,1.0000
0 / END OF GENERATOR DATA, BEGIN BRANCH DATA
@!   I,     J,'CKT',     R,          X,         B,                    'N A M E'                 ,   RATE1,   RATE2,   RATE3,   RATE4,   RATE5,   RATE6,   RATE7,   RATE8,   RATE9,  RATE10,  RATE11,  RATE12,    GI,       BI,       GJ,       BJ,STAT,MET,  LEN,  O1,  F1,    O2,  F2,    O3,  F3,    O4,  F4
     1,     5,'1 ', 3.18347E-2, 1.08769E-1,   0.01053,'                                        ',  123.00,    0.00,    0.00,    0.00,    0.00,    0.00,    0.00,    0.00,    0.00,    0.00,    0.00,    0.00,  0.00000,  0.00000,  0.00000,  0.00000,1,2,  32.10,   1,1.0000
     1,    19,'1 ', 2.21157E-2, 7.55620E-2,   0.00731,'                                        ',  123.00,    0.00,    0.00,    0.00,    0.00,    0.00,    0.00,    0.00,    0.00,    0.00,    0.00,    0.00,  0.00000,  0.00000,  0.00000,  0.00000,1,2,  22.30,   1,1.0000
     1,    29,'1 ', 1.93388E-2, 6.76859E-2,   0.00649,'                                        ',  123.00,    0.00,    0.00,    0.00,    0.00,    0.00,    0.00,    0.00,    0.00,    0.00,    0.00,    0.00,  0.00000,  0.00000,  0.00000,  0.00000,1,1,  19.50,   1,1.0000
     1,    36,'1 ', 1.69587E-2, 5.93554E-2,   0.00563,'                                        ',  123.00,    0.00,    0.00,    0.00,    0.00,    0.00,    0.00,    0.00,    0.00,    0.00,    0.00,    0.00,  0.00000,  0.00000,  0.00000,  0.00000,1,1,  17.10,   1,1.0000
     1,    55,'1 ', 3.18645E-2, 1.09785E-1,   0.01062,'                                        ',  123.00,    0.00,    0.00,    0.00,    0.00,    0.00,    0.00,    0.00,    0.00,    0.00,    0.00,    0.00,  0.00000,  0.00000,  0.00000,  0.00000,1,2,  32.40,   1,1.0000
     3,     9,'1 ', 2.15124E-2, 4.75537E-2,   0.00449,'                                        ',   90.00,    0.00,    0.00,    0.00,    0.00,    0.00,    0.00,    0.00,    0.00,    0.00,    0.00,    0.00,  0.00000,  0.00000,  0.00000,  0.00000,1,1,  13.70,   1,1.0000
     3,    34,'1 ', 1.21984E-2, 4.26942E-2,   0.00405,'                                        ',  123.00,    0.00,    0.00,    0.00,    0.00,    0.00,    0.00,    0.00,    0.00,    0.00,    0.00,    0.00,  0.00000,  0.00000,  0.00000,  0.00000,1,2,  12.30,   1,1.0000
     4,    15,'1 ', 3.00826E-3, 2.18099E-2,   0.00396,'                                        ',  300.00,    0.00,    0.00,    0.00,    0.00,    0.00,    0.00,    0.00,    0.00,    0.00,    0.00,    0.00,  0.00000,  0.00000,  0.00000,  0.00000,1,2,   9.10,   1,1.0000
     4,    15,'2 ', 3.00826E-3, 2.18099E-2,   0.00396,'                                        ',  300.00,    0.00,    0.00,    0.00,    0.00,    0.00,    0.00,    0.00,    0.00,    0.00,    0.00,    0.00,  0.00000,  0.00000,  0.00000,  0.00000,1,2,   9.10,   1,1.0000
     4,   103,'1 ', 3.38843E-3, 1.14876E-2,   0.00111,'                                        ',  123.00,    0.00,    0.00,    0.00,    0.00,    0.00,    0.00,    0.00,    0.00,    0.00,    0.00,    0.00,  0.00000,  0.00000,  0.00000,  0.00000,1,1,   3.40,   1,1.0000
     4,   103,'2 ', 3.38843E-3, 1.18182E-2,   0.00112,'                                        ',  123.00,    0.00,    0.00,    0.00,    0.00,    0.00,    0.00,    0.00,    0.00,    0.00,    0.00,    0.00,  0.00000,  0.00000,  0.00000,  0.00000,1,1,   3.40,   1,1.0000
     5,    42,'1 ', 5.73140E-2, 1.26694E-1,   0.01201,'                                        ',   90.00,    0.00,    0.00,    0.00,    0.00,    0.00,    0.00,    0.00,    0.00,    0.00,    0.00,    0.00,  0.00000,  0.00000,  0.00000,  0.00000,1,1,  36.50,   1,1.0000
     5,    68,'1 ', 4.76033E-3, 1.62645E-2,   0.00157,'                                        ',  123.00,    0.00,    0.00,    0.00,    0.00,    0.00,    0.00,    0.00,    0.00,    0.00,    0.00,    0.00,  0.00000,  0.00000,  0.00000,  0.00000,1,2,   4.80,   1,1.0000
     7,     9,'1 ', 7.04132E-3, 2.46446E-2,   0.00234,'                                        ',  123.00,    0.00,    0.00,    0.00,    0.00,    0.00,    0.00,    0.00,    0.00,    0.00,    0.00,    0.00,  0.00000,  0.00000,  0.00000,  0.00000,1,1,   7.10,   1,1.0000
     7,     9,'2 ', 7.04132E-3, 2.46446E-2,   0.00234,'                                        ',  123.00,    0.00,    0.00,    0.00,    0.00,    0.00,    0.00,    0.00,    0.00,    0.00,    0.00,    0.00,  0.00000,  0.00000,  0.00000,  0.00000,1,1,   7.10,   1,1.0000
     8,    11,'99', 1.52652E-2, 1.78394E-1,   0.00000,'                                        ',    0.00,    0.00,    0.00,    0.00,    0.00,    0.00,    0.00,    0.00,    0.00,    0.00,    0.00,    0.00,  0.00000,  0.00000,  0.00000,  0.00000,1,1,   0.00,   1,1.0000
     8,    12,'99', 2.89145E-1, 8.84317E-1,   0.00000,'                                        ',    0.00,    0.00,    0.00,    0.00,    0.00,    0.00,    0.00,    0.00,    0.00,    0.00,    0.00,    0.00,  0.00000,  0.00000,  0.00000,  0.00000,1,1,   0.00,   1,1.0000
     8,    13,'99', 1.41404E-1, 7.09864E-1,   0.00000,'                                        ',    0.00,    0.00,    0.00,    0.00,    0.00,    0.00,    0.00,    0.00,    0.00,    0.00,    0.00,    0.00,  0.00000,  0.00000,  0.00000,  0.00000,1,1,   0.00,   1,1.0000
     8,    14,'1 ', 4.36364E-3, 2.23636E-2,   0.03552,'                                        ',  311.00,    0.00,    0.00,    0.00,    0.00,    0.00,    0.00,    0.00,    0.00,    0.00,    0.00,    0.00,  0.00000,  0.00000,  0.00000,  0.00000,1,2,  26.40,   1,1.0000
     8,    72,'99', 3.36347E-2, 1.82101E-1,   0.00000,'                                        ',    0.00,    0.00,    0.00,    0.00,    0.00,    0.00,    0.00,    0.00,    0.00,    0.00,    0.00,    0.00,  0.00000,  0.00000,  0.00000,  0.00000,1,1,   0.00,   1,1.0000
     9,    10,'1 ', 3.60000E-2, 1.21800E-1,   0.01190,'                                        ',  123.00,    0.00,    0.00,    0.00,    0.00,    0.00,    0.00,    0.00,    0.00,    0.00,    0.00,    0.00,  0.00000,  0.00000,  0.00000,  0.00000,1,2,  36.30,   1,1.0000
     9,    10,'99', 1.63574E-1, 5.95417E-1,   0.00000,'                                        ',    0.00,    0.00,    0.00,    0.00,    0.00,    0.00,    0.00,    0.00,    0.00,    0.00,    0.00,    0.00,  0.00000,  0.00000,  0.00000,  0.00000,1,1,   0.00,   1,1.0000
     9,    12,'99', 2.12217E-1, 7.84283E-1,   0.00000,'                                        ',    0.00,    0.00,    0.00,    0.00,    0.00,    0.00,    0.00,    0.00,    0.00,    0.00,    0.00,    0.00,  0.00000,  0.00000,  0.00000,  0.00000,1,1,   0.00,   1,1.0000
     9,    16,'1 ', 1.03140E-2, 3.48959E-2,   0.00341,'                                        ',  123.00,    0.00,    0.00,    0.00,    0.00,    0.00,    0.00,    0.00,    0.00,    0.00,    0.00,    0.00,  0.00000,  0.00000,  0.00000,  0.00000,1,2,  10.40,   1,1.0000
    10,    12,'99', 8.31410E-2, 2.83228E-1,   0.00000,'                                        ',    0.00,    0.00,    0.00,    0.00,    0.00,    0.00,    0.00,    0.00,    0.00,    0.00,    0.00,    0.00,  0.00000,  0.00000,  0.00000,  0.00000,1,1,   0.00,   1,1.0000
    10,    15,'1 ', 2.21157E-2, 7.74050E-2,   0.00731,'                                        ',  123.00,    0.00,    0.00,    0.00,    0.00,    0.00,    0.00,    0.00,    0.00,    0.00,    0.00,    0.00,  0.00000,  0.00000,  0.00000,  0.00000,1,1,  22.30,   1,1.0000
    11,    12,'99', 9.82809E-2, 5.53259E-1,   0.00000,'                                        ',    0.00,    0.00,    0.00,    0.00,    0.00,    0.00,    0.00,    0.00,    0.00,    0.00,    0.00,    0.00,  0.00000,  0.00000,  0.00000,  0.00000,1,1,   0.00,   1,1.0000
    11,    13,'1 ', 1.14375E-3, 1.18950E-2,   0.33770,'                                        ', 1330.00,    0.00,    0.00,    0.00,    0.00,    0.00,    0.00,    0.00,    0.00,    0.00,    0.00,    0.00,  0.00000,  0.00000,  0.00000,  0.00000,1,1,  61.00,   1,1.0000
    12,    72,'1 ', 2.06281E-2, 7.04793E-2,   0.00682,'                                        ',  123.00,    0.00,    0.00,    0.00,    0.00,    0.00,    0.00,    0.00,    0.00,    0.00,    0.00,    0.00,  0.00000,  0.00000,  0.00000,  0.00000,1,1,  20.80,   1,1.0000
    12,    72,'2 ', 2.06281E-2, 7.04793E-2,   0.00682,'                                        ',  123.00,    0.00,    0.00,    0.00,    0.00,    0.00,    0.00,    0.00,    0.00,    0.00,    0.00,    0.00,  0.00000,  0.00000,  0.00000,  0.00000,1,1,  20.80,   1,1.0000
    13,    72,'99', 3.25062E-1, 9.61732E-1,   0.00000,'                                        ',    0.00,    0.00,    0.00,    0.00,    0.00,    0.00,    0.00,    0.00,    0.00,    0.00,    0.00,    0.00,  0.00000,  0.00000,  0.00000,  0.00000,1,2,   0.00,   1,1.0000
    15,    18,'1 ', 6.44628E-3, 2.20248E-2,   0.00216,'                                        ',  123.00,    0.00,    0.00,    0.00,    0.00,    0.00,    0.00,    0.00,    0.00,    0.00,    0.00,    0.00,  0.00000,  0.00000,  0.00000,  0.00000,1,1,   6.50,   1,1.0000
    15,    26,'1 ', 1.38843E-2, 4.74380E-2,   0.00461,'                                        ',  123.00,    0.00,    0.00,    0.00,    0.00,    0.00,    0.00,    0.00,    0.00,    0.00,    0.00,    0.00,  0.00000,  0.00000,  0.00000,  0.00000,1,1,  14.00,   1,1.0000
    16,    17,'1 ', 5.60331E-3, 1.96116E-2,   0.00186,'                                        ',  123.00,    0.00,    0.00,    0.00,    0.00,    0.00,    0.00,    0.00,    0.00,    0.00,    0.00,    0.00,  0.00000,  0.00000,  0.00000,  0.00000,1,2,   5.65,   1,1.0000
    17,    34,'1 ', 1.29422E-2, 4.52975E-2,   0.00430,'                                        ',  123.00,    0.00,    0.00,    0.00,    0.00,    0.00,    0.00,    0.00,    0.00,    0.00,    0.00,    0.00,  0.00000,  0.00000,  0.00000,  0.00000,1,1,  13.05,   1,1.0000
    18,   103,'1 ', 6.44628E-3, 2.20248E-2,   0.00216,'                                        ',  123.00,    0.00,    0.00,    0.00,    0.00,    0.00,    0.00,    0.00,    0.00,    0.00,    0.00,    0.00,  0.00000,  0.00000,  0.00000,  0.00000,1,1,   6.50,   1,1.0000
    26,    55,'1 ', 3.60000E-2, 1.21800E-1,   0.01190,'                                        ',  123.00,    0.00,    0.00,    0.00,    0.00,    0.00,    0.00,    0.00,    0.00,    0.00,    0.00,    0.00,  0.00000,  0.00000,  0.00000,  0.00000,1,2,  36.30,   1,1.0000
    26,   103,'1 ', 1.37124E-2, 4.59702E-2,   0.00446,'                                        ',  123.00,    0.00,    0.00,    0.00,    0.00,    0.00,    0.00,    0.00,    0.00,    0.00,    0.00,    0.00,  0.00000,  0.00000,  0.00000,  0.00000,1,1,  13.60,   1,1.0000
    29,    34,'1 ', 1.21984E-2, 4.26942E-2,   0.00403,'                                        ',  123.00,    0.00,    0.00,    0.00,    0.00,    0.00,    0.00,    0.00,    0.00,    0.00,    0.00,    0.00,  0.00000,  0.00000,  0.00000,  0.00000,1,1,  12.30,   1,1.0000
    34,    35,'1 ', 1.12066E-2, 3.79157E-2,   0.00371,'                                        ',  123.00,    0.00,    0.00,    0.00,    0.00,    0.00,    0.00,    0.00,    0.00,    0.00,    0.00,    0.00,  0.00000,  0.00000,  0.00000,  0.00000,1,2,  11.30,   1,1.0000
    35,    36,'1 ', 1.00165E-2, 3.50579E-2,   0.00332,'                                        ',  123.00,    0.00,    0.00,    0.00,    0.00,    0.00,    0.00,    0.00,    0.00,    0.00,    0.00,    0.00,  0.00000,  0.00000,  0.00000,  0.00000,1,2,  10.10,   1,1.0000
    42,    72,'1 ', 4.60083E-2, 1.01702E-1,   0.00961,'                                        ',   90.00,    0.00,    0.00,    0.00,    0.00,    0.00,    0.00,    0.00,    0.00,    0.00,    0.00,    0.00,  0.00000,  0.00000,  0.00000,  0.00000,1,2,  29.30,   1,1.0000
    72,   103,'1 ', 2.11240E-2, 7.39339E-2,   0.00701,'                                        ',  123.00,    0.00,    0.00,    0.00,    0.00,    0.00,    0.00,    0.00,    0.00,    0.00,    0.00,    0.00,  0.00000,  0.00000,  0.00000,  0.00000,1,1,  21.30,   1,1.0000
    72,   103,'2 ', 2.11240E-2, 7.39339E-2,   0.00701,'                                        ',  123.00,    0.00,    0.00,    0.00,    0.00,    0.00,    0.00,    0.00,    0.00,    0.00,    0.00,    0.00,  0.00000,  0.00000,  0.00000,  0.00000,1,1,  21.30,   1,1.0000
    72,   103,'99', 1.80192E-2, 8.36813E-2,   0.00000,'                                        ',  230.00,    0.00,    0.00,    0.00,    0.00,    0.00,    0.00,    0.00,    0.00,    0.00,    0.00,    0.00,  0.00014,  0.00796, -0.00014,  0.01146,1,2,  36.50,   1,1.0000
0 / END OF BRANCH DATA, BEGIN SYSTEM SWITCHING DEVICE DATA
@!   I,     J,'CKT',          X,   RATE1,   RATE2,   RATE3,   RATE4,   RATE5,   RATE6,   RATE7,   RATE8,   RATE9,  RATE10,  RATE11,  RATE12, STAT,NSTAT,  MET,STYPE,'NAME'
0 / END OF SYSTEM SWITCHING DEVICE DATA, BEGIN TRANSFORMER DATA
@!   I,     J,     K,'CKT',CW,CZ,CM,    MAG1,       MAG2,NMETR,               'N A M E',               STAT,O1,  F1,    O2,  F2,    O3,  F3,    O4,  F4,     'VECGRP', ZCOD
@!   R1-2,       X1-2,   SBASE1-2,     R2-3,       X2-3,   SBASE2-3,     R3-1,       X3-1,   SBASE3-1, VMSTAR,   ANSTAR
@!WINDV1,  NOMV1,    ANG1,  RATE1-1,  RATE1-2,  RATE1-3,  RATE1-4,  RATE1-5,  RATE1-6,  RATE1-7,  RATE1-8,  RATE1-9, RATE1-10, RATE1-11, RATE1-12,COD1,CONT1,   RMA1,    RMI1,    VMA1,    VMI1, NTP1,TAB1,  CR1,     CX1,   CNXA1
@!WINDV2,  NOMV2,    ANG2,  RATE2-1,  RATE2-2,  RATE2-3,  RATE2-4,  RATE2-5,  RATE2-6,  RATE2-7,  RATE2-8,  RATE2-9, RATE2-10, RATE2-11, RATE2-12,COD2,CONT2,   RMA2,    RMI2,    VMA2,    VMI2, NTP2,TAB2,  CR2,     CX2,   CNXA2
@!WINDV3,  NOMV3,    ANG3,  RATE3-1,  RATE3-2,  RATE3-3,  RATE3-4,  RATE3-5,  RATE3-6,  RATE3-7,  RATE3-8,  RATE3-9, RATE3-10, RATE3-11, RATE3-12,COD3,CONT3,   RMA3,    RMI3,    VMA3,    VMI3, NTP3,TAB3,  CR3,     CX3,   CNXA3
     1,     2,     0,'1 ', 2, 1, 1, 2.30000E-4,-4.60000E-4,2,'TR01-02-1                               ',1,   1,1.0000,   0,1.0000,   0,1.0000,   0,1.0000,'YNyn0       '
 9.03800E-3, 2.68098E-1,    40.00
119.000, 110.000,   0.000,    40.00,     0.00,     0.00,     0.00,     0.00,     0.00,     0.00,     0.00,     0.00,     0.00,     0.00,     0.00, 1,      2,121.0000,98.00000, 1.01400, 0.98500,  21, 0, 0.00000, 0.00000,  0.000
36.7500,  35.000
     1,     2,     0,'2 ', 2, 1, 1, 2.30000E-4,-4.60000E-4,2,'TR01-02-2                               ',0,   1,1.0000,   0,1.0000,   0,1.0000,   0,1.0000,'YNyn0       '
 9.03800E-3, 2.68098E-1,    40.00
119.000, 110.000,   0.000,    40.00,    48.00,    48.00,     0.00,     0.00,     0.00,     0.00,     0.00,     0.00,     0.00,     0.00,     0.00, 1,      2,125.0000,95.00000, 1.01400, 0.99000,  21, 0, 0.00000, 0.00000,  0.000
36.7500,  36.750
     8,    72,     0,'2 ', 2, 1, 1, 6.07500E-4, 0.00000E+0,1,'                                        ',1,   1,1.0000,   0,1.0000,   0,1.0000,   0,1.0000,'            '
 1.64444E-3, 6.99807E-2,   150.00
228.140, 220.000,   0.000,   150.00,     0.00,     0.00,     0.00,     0.00,     0.00,     0.00,     0.00,     0.00,     0.00,     0.00,     0.00, 0,      0, 1.10000, 0.90000, 1.10000, 0.90000,  25, 0, 0.00000, 0.00000,  0.000
115.000, 110.000
     8,    72,     0,'3 ', 2, 1, 1, 6.01300E-4, 0.00000E+0,1,'                                        ',1,   1,1.0000,   0,1.0000,   0,1.0000,   0,1.0000,'            '
 1.64889E-3, 6.99806E-2,   150.00
228.140, 220.000,   0.000,   150.00,     0.00,     0.00,     0.00,     0.00,     0.00,     0.00,     0.00,     0.00,     0.00,     0.00,     0.00, 0,      0, 1.10000, 0.90000, 1.10000, 0.90000,  25, 0, 0.00000, 0.00000,  0.000
115.000, 110.000
    11,    12,     0,'2 ', 2, 1, 1, 1.25200E-3, 0.00000E+0,1,'                                        ',1,   1,1.0000,   0,1.0000,   0,1.0000,   0,1.0000,'            '
 7.09110E-4, 4.15606E-2,   300.00
400.000, 400.000,   0.000,   300.00,     0.00,     0.00,     0.00,     0.00,     0.00,     0.00,     0.00,     0.00,     0.00,     0.00,     0.00, 0,      0, 1.10000, 0.90000, 1.10000, 0.90000,   5, 0, 0.00000, 0.00000,  0.000
115.000, 110.000
    11,    12,     0,'3 ', 2, 1, 1, 1.29600E-3, 0.00000E+0,1,'                                        ',1,   1,1.0000,   0,1.0000,   0,1.0000,   0,1.0000,'            '
 6.97560E-4, 4.25609E-2,   300.00
400.000, 400.000,   0.000,   300.00,     0.00,     0.00,     0.00,     0.00,     0.00,     0.00,     0.00,     0.00,     0.00,     0.00,     0.00, 0,      0, 1.10000, 0.90000, 1.10000, 0.90000,   5, 0, 0.00000, 0.00000,  0.000
115.000, 110.000
    13,    14,     0,'1 ', 2, 1, 1, 6.16000E-4, 0.00000E+0,1,'                                        ',1,   1,1.0000,   0,1.0000,   0,1.0000,   0,1.0000,'            '
 3.64560E-4, 3.17479E-2,   400.00
398.000, 400.000,   0.460,   400.00,     0.00,     0.00,     0.00,     0.00,     0.00,     0.00,     0.00,     0.00,     0.00,     0.00,     0.00, 0,      0, 1.10000, 0.90000, 1.10000, 0.90000,  25, 0, 0.00000, 0.00000,  0.000
231.000, 220.000
    13,    15,     0,'1 ', 2, 1, 1, 9.12000E-4, 0.00000E+0,1,'                                        ',1,   1,1.0000,   0,1.0000,   0,1.0000,   0,1.0000,'            '
 5.26330E-4, 4.07299E-2,   300.00
409.200, 400.000,   0.000,   300.00,     0.00,     0.00,     0.00,     0.00,     0.00,     0.00,     0.00,     0.00,     0.00,     0.00,     0.00, 0,      0, 1.10000, 0.90000, 1.10000, 0.90000,  25, 0, 0.00000, 0.00000,  0.000
115.000, 110.000
    13,    15,     0,'2 ', 2, 1, 1, 8.98000E-4, 0.00000E+0,1,'                                        ',1,   1,1.0000,   0,1.0000,   0,1.0000,   0,1.0000,'            '
 5.42330E-4, 4.07964E-2,   300.00
409.200, 400.000,   0.000,   300.00,     0.00,     0.00,     0.00,     0.00,     0.00,     0.00,     0.00,     0.00,     0.00,     0.00,     0.00, 0,      0, 1.10000, 0.90000, 1.10000, 0.90000,  25, 0, 0.00000, 0.00000,  0.000
115.000, 110.000
    19,    20,     0,'1 ', 2, 1, 1, 2.80000E-4,-2.52000E-3,2,'TR19-20-1                               ',1,   1,1.0000,   0,1.0000,   0,1.0000,   0,1.0000,'YNyn0       '
 3.39725E-2, 5.53959E-1,    20.00
119.000, 110.000,   0.000,    20.00,    24.00,    24.00,     0.00,     0.00,     0.00,     0.00,     0.00,     0.00,     0.00,     0.00,     0.00, 1,     20,125.0000,95.00000, 1.01400, 0.98500,  21, 0, 0.00000, 0.00000,  0.000
36.7500,  36.750
    19,    21,     0,'2 ', 2, 1, 1, 2.80000E-4,-2.52000E-3,2,'TR19-21-2                               ',1,   1,1.0000,   0,1.0000,   0,1.0000,   0,1.0000,'YNyn0       '
 3.39725E-2, 5.68987E-1,    20.00
119.000, 110.000,   0.000,    20.00,    24.00,    24.00,     0.00,     0.00,     0.00,     0.00,     0.00,     0.00,     0.00,     0.00,     0.00, 1,     21,125.0000,95.00000, 1.01400, 0.98500,  21, 0, 0.00000, 0.00000,  0.000
36.7500,  36.750
    29,    30,     0,'1 ', 2, 1, 1, 2.60000E-4,-9.70000E-4,2,'TR29-30-1                               ',0,   1,1.0000,   0,1.0000,   0,1.0000,   0,1.0000,'YNyn0       '
 4.19100E-2, 5.24328E-1,    20.00
119.000, 110.000,   0.000,    20.00,    24.00,    24.00,     0.00,     0.00,     0.00,     0.00,     0.00,     0.00,     0.00,     0.00,     0.00, 1,     30,125.0000,95.00000, 1.01400, 0.98500,  21, 0, 0.00000, 0.00000,  0.000
36.7500,  36.750
    29,    30,     0,'2 ', 2, 1, 1, 2.00000E-4,-5.50000E-4,2,'TR29-30-2                               ',1,   1,1.0000,   0,1.0000,   0,1.0000,   0,1.0000,'YNyn0       '
 2.56818E-2, 5.31198E-1,    22.00
119.000, 110.000,   0.000,    22.00,    26.40,    26.40,     0.00,     0.00,     0.00,     0.00,     0.00,     0.00,     0.00,     0.00,     0.00, 1,     30,125.0000,95.00000, 1.01400, 0.98500,  21, 0, 0.00000, 0.00000,  0.000
36.7500,  36.750
0 / END OF TRANSFORMER DATA, BEGIN AREA DATA
@! I,   ISW,     PDES,      PTOL,    'ARNAME'
   8,     0,     0.000,    10.000,'HRVATSKA    '
0 / END OF AREA DATA, BEGIN TWO-TERMINAL DC DATA
@!  'NAME',   MDC,     RDC,      SETVL,     VSCHD,     VCMOD,     RCOMP,    DELTI,METER    DCVMIN,CCCITMX, CCCACC
@! IPR,NBR,ANMXR,ANMNR,   RCR,    XCR,  EBASR,  TRR,    TAPR,   TMXR,   TMNR,   STPR,    ICR,   IFR,   ITR,'IDR', XCAPR
@! IPI,NBI,ANMXI,ANMNI,   RCI,    XCI,  EBASI,  TRI,    TAPI,   TMXI,   TMNI,   STPI,    ICI,   IFI,   ITI,'IDI', XCAPI
0 / END OF TWO-TERMINAL DC DATA, BEGIN VSC DC LINE DATA
@!  'NAME',   MDC,     RDC,   O1,  F1,    O2,  F2,    O3,  F3,    O4,  F4
@!IBUS,TYPE,MODE,     DCSET,   ACSET,     ALOSS,     BLOSS,   MINLOSS,     SMAX,      IMAX,   PWF,        MAXQ,      MINQ, REMOT,  RMPCT
0 / END OF VSC DC LINE DATA, BEGIN IMPEDANCE CORRECTION DATA
@!I,   T1,    Re(F1),  Im(F1),    T2,    Re(F2),  Im(F2),    T3,    Re(F3),  Im(F3),    T4,    Re(F4),  Im(F4),    T5,    Re(F5),  Im(F5),    T6,    Re(F6),  Im(F6)
@!     T7,    Re(F7),  Im(F7),    T8,    Re(F8),  Im(F8),    T9,    Re(F9),  Im(F9),    T10,  Re(F10), Im(F10),    T11,  Re(F11), Im(F11),    T12,  Re(F12), Im(F12)
@!      ...
0 / END OF IMPEDANCE CORRECTION DATA, BEGIN MULTI-TERMINAL DC DATA
@!  'NAME',    NCONV,NDCBS,NDCLN,  MDC, VCONV,     VCMOD, VCONVN
@!  IB, N,ANGMX,ANGMN,    RC,      XC,    EBAS,   TR,    TAP,    TPMX,   TPMN,   TSTP,     SETVL,   DCPF,    MARG,CNVCOD
@!IDC, IB,AREA,ZONE,   'DCNAME',  IDC2,   RGRND,OWNER
@!IDC,JDC,'DCCKT',MET,   RDC,        LDC
0 / END OF MULTI-TERMINAL DC DATA, BEGIN MULTI-SECTION LINE DATA
@!   I,     J,'ID',MET,DUM1,  DUM2,  DUM3,  DUM4,  DUM5,  DUM6,  DUM7,  DUM8,  DUM9
0 / END OF MULTI-SECTION LINE DATA, BEGIN ZONE DATA
@! I,   'ZONAME'
   1,'REAL        '
0 / END OF ZONE DATA, BEGIN INTER-AREA TRANSFER DATA
@!ARFROM,ARTO,'TRID', PTRAN
0 / END OF INTER-AREA TRANSFER DATA, BEGIN OWNER DATA
@! I,   'OWNAME'
0 / END OF OWNER DATA, BEGIN FACTS DEVICE DATA
@!  'NAME',         I,     J,MODE,   PDES,      QDES,  VSET,      SHMX,      TRMX,   VTMN,   VTMX,   VSMX,      IMX,     LINX,   RMPCT,OWNER,    SET1,      SET2,VSREF, REMOT,   'MNAME'
0 / END OF FACTS DEVICE DATA, BEGIN SWITCHED SHUNT DATA
@!  I,MODSW,ADJM,ST, VSWHI,  VSWLO, SWREM,  RMPCT,   'RMIDNT',      BINIT,N1,     B1, N2,     B2, N3,     B3, N4,     B4, N5,     B5, N6,     B6, N7,     B7, N8,     B8
     8,  0,  0,  1,1.10000,0.90000,     0,  100.0,'            ',  -82.67, 1,  -24.78, 8,   -1.81, 8,   -1.81, 8,   -1.81, 8,   -1.81
0 / END OF SWITCHED SHUNT DATA, BEGIN GNE DATA
@!  'NAME',        'MODEL',     NTERM,BUS1...BUSNTERM,NREAL,NINTG,NCHAR
@!ST,OWNER,NMETR
@! REAL1...REAL(MIN(10,NREAL))
@! INTG1...INTG(MIN(10,NINTG))
@! CHAR1...CHAR(MIN(10,NCHAR))
0 / END OF GNE DATA, BEGIN INDUCTION MACHINE DATA
@!   I,'ID',ST,SC,DC,AREA,ZONE,OWNER,TC,BC,  MBASE, RATEKV,PC,  PSET,      H,       A,       B,       D,       E,     RA,        XA,        XM,        R1,        X1,        R2,        X2,        X3,       E1,    SE1,   E2,    SE2,   IA1,   IA2, XAMULT
0 / END OF INDUCTION MACHINE DATA, BEGIN SUBSTATION DATA
0 / END OF SUBSTATION DATA
Q
